CM Simple Dipole with Radiation Pattern
CE
GW 1 11 0 0 -0.25 0 0 0.25 0.001
GE 0
EX 0 1 6 0 1.0 0.0
FR 0 1 0 0 299.79 0
RP 0 37 73 1000 -90.0 0.0 5.0 5.0 100000.0
XQ
EN
